Circuit: * C:\Users\HP\Documents\LTspiceXVII\Draft3.asc

WARNING: Less than two connections to node TOP.  This node is used by M2.
Direct Newton iteration for .op point succeeded.

Date: Fri May 14 15:37:59 2021
Total elapsed time: 0.162 seconds.

tnom = 27
temp = 27
method = modified trap
totiter = 3487
traniter = 3467
tranpoints = 1694
accept = 1594
rejected = 100
matrix size = 8
fillins = 0
solver = Normal
Matrix Compiler1:      18 opcodes  0.1/[0.1]/0.1
Matrix Compiler2: 628 bytes object code size  0.1/0.1/[0.1]

