Circuit: * C:\Users\HP\Documents\LTspiceXVII\Draft1.asc

Error on line 4 : v1 n001 0 v
	 Unknown parameter "v"
WARNING: Node ~BL is floating.

WARNING: Less than two connections to node BL.  This node is used by M5.
V1: Missing value, assumed 0V @ DC
.OP point found by inspection.

Date: Fri May 14 08:52:12 2021
Total elapsed time: 0.115 seconds.

tnom = 27
temp = 27
method = modified trap
totiter = 2100
traniter = 2100
tranpoints = 1051
accept = 1051
rejected = 0
matrix size = 8
fillins = 0
solver = Normal
Matrix Compiler1: 576 bytes object code size  0.1/0.1/[0.0]
Matrix Compiler2: off  [0.0]/0.1/0.1

