Circuit: * C:\Users\Lenovo\Documents\LTspiceXVII\Part2_I.asc

WARNING: Less than two connections to node OUTPUT.  This node is used by A7.
Direct Newton iteration for .op point succeeded.

Date: Sat May 08 03:03:30 2021
Total elapsed time: 0.059 seconds.

tnom = 27
temp = 27
method = modified trap
totiter = 2984
traniter = 2979
tranpoints = 1483
accept = 1412
rejected = 71
matrix size = 13
fillins = 0
solver = Normal
Matrix Compiler1: 226 bytes object code size  0.1/0.1/[0.1]
Matrix Compiler2: 553 bytes object code size  0.1/0.1/[0.0]

