Circuit: * C:\Users\Lenovo\Documents\LTspiceXVII\Part2_III.asc

WARNING: Less than two connections to node OUTPUT.  This node is used by A13.
WARNING: Less than two connections to node N014.  This node is used by A11.
Direct Newton iteration for .op point succeeded.

Date: Fri May 14 00:30:16 2021
Total elapsed time: 0.078 seconds.

tnom = 27
temp = 27
method = modified trap
totiter = 2996
traniter = 2990
tranpoints = 1483
accept = 1412
rejected = 71
matrix size = 19
fillins = 0
solver = Normal
Matrix Compiler1: 310 bytes object code size  0.1/0.1/[0.1]
Matrix Compiler2: 787 bytes object code size  0.1/0.1/[0.1]

